NUMBER_PART= 8
PHYSICAL_PROBLEM= NAVIER_STOKES
KIND_TURB_MODEL= SST
REYNOLDS_NUMBER= 1523551.247852
REYNOLDS_LENGTH= 0.469894
VISCOSITY_MODEL= SUTHERLAND
MU_CONSTANT= 1.716e-05
MU_REF= 1.716e-05
MU_T_REF= 273.15
NUM_METHOD_GRAD= GREEN_GAUSS
CFL_NUMBER= 5
CFL_ADAPT= NO
LINEAR_SOLVER= FGMRES
LINEAR_SOLVER_PREC= LU_SGS
LINEAR_SOLVER_ERROR= 1E-4
LINEAR_SOLVER_ITER= 3
MATH_PROBLEM= DIRECT
RESTART_SOL= NO
SYSTEM_MEASUREMENTS= SI
REGIME_TYPE= COMPRESSIBLE
EXT_ITER= 5000
RK_ALPHA_COEFF= ( 0.66667, 0.66667, 1.000000 )
MACH_NUMBER= 0.511000
FREESTREAM_PRESSURE= 18700.000000
FREESTREAM_TEMPERATURE= 214.000000
REF_DIMENSIONALIZATION= DIMENSIONAL
MARKER_HEATFLUX= (1, 0.0,  2, 0.0,  5, 0.0,  6, 0.0,  12, 0.0,  13, 0.0)
MARKER_INLET= (3, 950.000000, 97500.000000, 1.0, 0.0, 0.0 )
MARKER_FAR= ( (7, 8, 9, 10, 15) )
MARKER_SYM= ( (4, 11) )
MARKER_INTERNAL= ( 14 )
REF_SHARP_EDGES= 3.0
SENS_REMOVE_SHARP= NO
MGLEVEL= 3
MGCYCLE= V_CYCLE
MG_PRE_SMOOTH= ( 1, 2, 3, 3 )
MG_POST_SMOOTH= ( 0, 0, 0, 0 )
MG_CORRECTION_SMOOTH= ( 0, 0, 0, 0 )
MG_DAMP_RESTRICTION= 0.75
MG_DAMP_PROLONGATION= 0.75
MUSCL_FLOW= YES
VENKAT_LIMITER_COEFF= 0.05
JST_SENSOR_COEFF= ( 0.5, 0.03 )
CONV_NUM_METHOD_FLOW= JST
SLOPE_LIMITER_FLOW= VENKATAKRISHNAN
TIME_DISCRE_FLOW= EULER_IMPLICIT
ENTROPY_FIX_COEFF= 0.0
CONV_NUM_METHOD_TURB= SCALAR_UPWIND
SLOPE_LIMITER_TURB= VENKATAKRISHNAN
TIME_DISCRE_TURB= EULER_IMPLICIT
CFL_REDUCTION_TURB= 0.6
RELAXATION_FACTOR_TURB= 0.5
CONV_CRITERIA= RESIDUAL
RESIDUAL_REDUCTION= 6
RESIDUAL_MINVAL= -12
STARTCONV_ITER= 25
WRT_BINARY_RESTART= NO
READ_BINARY_RESTART= NO
MESH_FILENAME= nozzle.su2
OUTPUT_FORMAT= PARAVIEW
CONV_FILENAME= history
RESTART_FLOW_FILENAME= nozzle.dat
WRT_SOL_FREQ= 500
WRT_CON_FREQ= 1
OBJECTIVE_FUNCTION= THRUST_NOZZLE
